[General]
network = SubstationSidhu2007
tkenv-plugin-path = ../../../etc/plugins
#record-eventlog = true
sim-time-limit = 31s
#debug-on-errors = true

#Switches
#**.relayUnitType = "MACRelayUnitSTPNP"
#**.relayUnitType = "MACRelay1Q"

[Config no8021Q]
description = "Model validation without using IEEE802.1Q (no VID, no priority Tag)"
include no8021q.ini

[Config withPriority]
description = "Model validation with priority tag only (IEEE802.1Q)"

[Config full8021Q]
description = "Model validation with priority tag and VID (IEEE802.1Q)"


#Old testes:
#include no8021q.ini
#include with8021q.ini