[General]
network = StarStar
record-eventlog = false
sim-time-limit = 31s

include experiment.ini
include configurations.ini
